/*--------------------------------*- C++ -*----------------------------------*\
  =========                 |
  \\      /  F ield         | OpenFOAM: The Open Source CFD Toolbox
   \\    /   O peration     | Website:  https://openfoam.org
    \\  /    A nd           | Version:  dev
     \\/     M anipulation  |
\*---------------------------------------------------------------------------*/

FoamFile
{
    version         2.0;
    format          ascii;
    class           dictionary;
    location        system;
    object          sampleDict_surface;
}
// * * * * * * * * * * * * * * * * * * * * * * * * * * * * * * * * * * * * //

type surfaces;

surfaceFormat raw;

interpolationScheme cellPoint;

fields 
(
    U
);


surfaces 
(
    xy_plane
    {
        type            cuttingPlane;
        planeType       pointAndNormal; 
        pointAndNormalDict 
        { 
            point   (0 0 5e-6); 
            normal  (0 0 1); 
        } 
        offsets ( 0 ); 
    }
);

// *********************************************************************** //
